support/feeders/R5-25.00-1.glm
clock {
     timezone EST+5EDT;
     timestamp '2000-01-01 0:00:00';
     stoptime '2000-01-01 0:01:00';
}
#set profiler=1
module tape;
module powerflow{
     solver_method NR;
      default_maximum_voltage_error 1e-6;
};

object transformer_configuration {
  name XF1_PADMOUNT_AS_5;
  power_rating 5.00;
  powerA_rating 5.00;
  powerB_rating 0.0;
  powerC_rating 0.0;
  install_type PADMOUNT;
  connect_type SINGLE_PHASE_CENTER_TAPPED;
  primary_voltage 13200.0;
  secondary_voltage 120.0;
  resistance 0.01050;
  resistance1 0.02100;
  resistance2 0.02100;
  reactance 0.01224;
  reactance1 0.00612;
  reactance2 0.00612;
  shunt_resistance 111.11;
  shunt_reactance 29.59;
}
object transformer_configuration {
  name XF1_PADMOUNT_BS_5;
  power_rating 5.00;
  powerA_rating 0.0;
  powerB_rating 5.00;
  powerC_rating 0.0;
  install_type PADMOUNT;
  connect_type SINGLE_PHASE_CENTER_TAPPED;
  primary_voltage 13200.0;
  secondary_voltage 120.0;
  resistance 0.01050;
  resistance1 0.02100;
  resistance2 0.02100;
  reactance 0.01224;
  reactance1 0.00612;
  reactance2 0.00612;
  shunt_resistance 111.11;
  shunt_reactance 29.59;
}
object transformer_configuration {
  name XF1_PADMOUNT_CS_25;
  power_rating 25.00;
  powerA_rating 0.0;
  powerB_rating 0.0;
  powerC_rating 25.00;
  install_type PADMOUNT;
  connect_type SINGLE_PHASE_CENTER_TAPPED;
  primary_voltage 13200.0;
  secondary_voltage 120.0;
  resistance 0.00800;
  resistance1 0.01600;
  resistance2 0.01600;
  reactance 0.01208;
  reactance1 0.00604;
  reactance2 0.00604;
  shunt_resistance 192.31;
  shunt_reactance 51.81;
}
object transformer_configuration {
  name XF1_PADMOUNT_AS_50;
  power_rating 50.00;
  powerA_rating 50.00;
  powerB_rating 0.0;
  powerC_rating 0.0;
  install_type PADMOUNT;
  connect_type SINGLE_PHASE_CENTER_TAPPED;
  primary_voltage 13200.0;
  secondary_voltage 120.0;
  resistance 0.00650;
  resistance1 0.01300;
  resistance2 0.01300;
  reactance 0.01416;
  reactance1 0.00708;
  reactance2 0.00708;
  shunt_resistance 222.22;
  shunt_reactance 64.94;
}
object transformer_configuration {
  name XF1_PADMOUNT_CS_5;
  power_rating 5.00;
  powerA_rating 0.0;
  powerB_rating 0.0;
  powerC_rating 5.00;
  install_type PADMOUNT;
  connect_type SINGLE_PHASE_CENTER_TAPPED;
  primary_voltage 13200.0;
  secondary_voltage 120.0;
  resistance 0.01050;
  resistance1 0.02100;
  resistance2 0.02100;
  reactance 0.01224;
  reactance1 0.00612;
  reactance2 0.00612;
  shunt_resistance 111.11;
  shunt_reactance 29.59;
}
object transformer_configuration {
  name XF1_PADMOUNT_BS_75;
  power_rating 75.00;
  powerA_rating 0.0;
  powerB_rating 75.00;
  powerC_rating 0.0;
  install_type PADMOUNT;
  connect_type SINGLE_PHASE_CENTER_TAPPED;
  primary_voltage 13200.0;
  secondary_voltage 120.0;
  resistance 0.00625;
  resistance1 0.01250;
  resistance2 0.01250;
  reactance 0.01352;
  reactance1 0.00676;
  reactance2 0.00676;
  shunt_resistance 238.10;
  shunt_reactance 67.11;
}
object transformer_configuration {
  name XF1_PADMOUNT_CS_37p5;
  power_rating 37.50;
  powerA_rating 0.0;
  powerB_rating 0.0;
  powerC_rating 37.50;
  install_type PADMOUNT;
  connect_type SINGLE_PHASE_CENTER_TAPPED;
  primary_voltage 13200.0;
  secondary_voltage 120.0;
  resistance 0.00725;
  resistance1 0.01450;
  resistance2 0.01450;
  reactance 0.01320;
  reactance1 0.00660;
  reactance2 0.00660;
  shunt_resistance 212.77;
  shunt_reactance 57.47;
}
object transformer_configuration {
  name XF1_PADMOUNT_BS_37p5;
  power_rating 37.50;
  powerA_rating 0.0;
  powerB_rating 37.50;
  powerC_rating 0.0;
  install_type PADMOUNT;
  connect_type SINGLE_PHASE_CENTER_TAPPED;
  primary_voltage 13200.0;
  secondary_voltage 120.0;
  resistance 0.00725;
  resistance1 0.01450;
  resistance2 0.01450;
  reactance 0.01320;
  reactance1 0.00660;
  reactance2 0.00660;
  shunt_resistance 212.77;
  shunt_reactance 57.47;
}
object transformer_configuration {
  name XF1_PADMOUNT_CS_50;
  power_rating 50.00;
  powerA_rating 0.0;
  powerB_rating 0.0;
  powerC_rating 50.00;
  install_type PADMOUNT;
  connect_type SINGLE_PHASE_CENTER_TAPPED;
  primary_voltage 13200.0;
  secondary_voltage 120.0;
  resistance 0.00650;
  resistance1 0.01300;
  resistance2 0.01300;
  reactance 0.01416;
  reactance1 0.00708;
  reactance2 0.00708;
  shunt_resistance 222.22;
  shunt_reactance 64.94;
}
object transformer_configuration {
  name XF1_PADMOUNT_AS_37p5;
  power_rating 37.50;
  powerA_rating 37.50;
  powerB_rating 0.0;
  powerC_rating 0.0;
  install_type PADMOUNT;
  connect_type SINGLE_PHASE_CENTER_TAPPED;
  primary_voltage 13200.0;
  secondary_voltage 120.0;
  resistance 0.00725;
  resistance1 0.01450;
  resistance2 0.01450;
  reactance 0.01320;
  reactance1 0.00660;
  reactance2 0.00660;
  shunt_resistance 212.77;
  shunt_reactance 57.47;
}
object transformer_configuration {
  name XF1_PADMOUNT_BS_15;
  power_rating 15.00;
  powerA_rating 0.0;
  powerB_rating 15.00;
  powerC_rating 0.0;
  install_type PADMOUNT;
  connect_type SINGLE_PHASE_CENTER_TAPPED;
  primary_voltage 13200.0;
  secondary_voltage 120.0;
  resistance 0.00850;
  resistance1 0.01700;
  resistance2 0.01700;
  reactance 0.01176;
  reactance1 0.00588;
  reactance2 0.00588;
  shunt_resistance 166.67;
  shunt_reactance 39.53;
}
object transformer_configuration {
  name XF1_PADMOUNT_CS_15;
  power_rating 15.00;
  powerA_rating 0.0;
  powerB_rating 0.0;
  powerC_rating 15.00;
  install_type PADMOUNT;
  connect_type SINGLE_PHASE_CENTER_TAPPED;
  primary_voltage 13200.0;
  secondary_voltage 120.0;
  resistance 0.00850;
  resistance1 0.01700;
  resistance2 0.01700;
  reactance 0.01176;
  reactance1 0.00588;
  reactance2 0.00588;
  shunt_resistance 166.67;
  shunt_reactance 39.53;
}
object transformer_configuration {
  name XF1_POLETOP_CS_15;
  power_rating 15.00;
  powerA_rating 0.0;
  powerB_rating 0.0;
  powerC_rating 15.00;
  install_type POLETOP;
  connect_type SINGLE_PHASE_CENTER_TAPPED;
  primary_voltage 13200.0;
  secondary_voltage 120.0;
  resistance 0.00850;
  resistance1 0.01700;
  resistance2 0.01700;
  reactance 0.01176;
  reactance1 0.00588;
  reactance2 0.00588;
  shunt_resistance 166.67;
  shunt_reactance 39.53;
}
object transformer_configuration {
  name XF1_POLETOP_CS_50;
  power_rating 50.00;
  powerA_rating 0.0;
  powerB_rating 0.0;
  powerC_rating 50.00;
  install_type POLETOP;
  connect_type SINGLE_PHASE_CENTER_TAPPED;
  primary_voltage 13200.0;
  secondary_voltage 120.0;
  resistance 0.00650;
  resistance1 0.01300;
  resistance2 0.01300;
  reactance 0.01416;
  reactance1 0.00708;
  reactance2 0.00708;
  shunt_resistance 222.22;
  shunt_reactance 64.94;
}
object transformer_configuration {
  name XF1_PADMOUNT_BS_50;
  power_rating 50.00;
  powerA_rating 0.0;
  powerB_rating 50.00;
  powerC_rating 0.0;
  install_type PADMOUNT;
  connect_type SINGLE_PHASE_CENTER_TAPPED;
  primary_voltage 13200.0;
  secondary_voltage 120.0;
  resistance 0.00650;
  resistance1 0.01300;
  resistance2 0.01300;
  reactance 0.01416;
  reactance1 0.00708;
  reactance2 0.00708;
  shunt_resistance 222.22;
  shunt_reactance 64.94;
}
object transformer_configuration {
  name XF1_PADMOUNT_CS_10;
  power_rating 10.00;
  powerA_rating 0.0;
  powerB_rating 0.0;
  powerC_rating 10.00;
  install_type PADMOUNT;
  connect_type SINGLE_PHASE_CENTER_TAPPED;
  primary_voltage 13200.0;
  secondary_voltage 120.0;
  resistance 0.00950;
  resistance1 0.01900;
  resistance2 0.01900;
  reactance 0.01040;
  reactance1 0.00520;
  reactance2 0.00520;
  shunt_resistance 147.06;
  shunt_reactance 34.25;
}
object transformer_configuration {
  name XF1_POLETOP_CS_37p5;
  power_rating 37.50;
  powerA_rating 0.0;
  powerB_rating 0.0;
  powerC_rating 37.50;
  install_type POLETOP;
  connect_type SINGLE_PHASE_CENTER_TAPPED;
  primary_voltage 13200.0;
  secondary_voltage 120.0;
  resistance 0.00725;
  resistance1 0.01450;
  resistance2 0.01450;
  reactance 0.01320;
  reactance1 0.00660;
  reactance2 0.00660;
  shunt_resistance 212.77;
  shunt_reactance 57.47;
}
object transformer_configuration {
  name XF1_PADMOUNT_AS_75;
  power_rating 75.00;
  powerA_rating 75.00;
  powerB_rating 0.0;
  powerC_rating 0.0;
  install_type PADMOUNT;
  connect_type SINGLE_PHASE_CENTER_TAPPED;
  primary_voltage 13200.0;
  secondary_voltage 120.0;
  resistance 0.00625;
  resistance1 0.01250;
  resistance2 0.01250;
  reactance 0.01352;
  reactance1 0.00676;
  reactance2 0.00676;
  shunt_resistance 238.10;
  shunt_reactance 67.11;
}
object transformer_configuration {
  name XF1_PADMOUNT_AS_25;
  power_rating 25.00;
  powerA_rating 25.00;
  powerB_rating 0.0;
  powerC_rating 0.0;
  install_type PADMOUNT;
  connect_type SINGLE_PHASE_CENTER_TAPPED;
  primary_voltage 13200.0;
  secondary_voltage 120.0;
  resistance 0.00800;
  resistance1 0.01600;
  resistance2 0.01600;
  reactance 0.01208;
  reactance1 0.00604;
  reactance2 0.00604;
  shunt_resistance 192.31;
  shunt_reactance 51.81;
}
object transformer_configuration {
  name XF1_PADMOUNT_BS_10;
  power_rating 10.00;
  powerA_rating 0.0;
  powerB_rating 10.00;
  powerC_rating 0.0;
  install_type PADMOUNT;
  connect_type SINGLE_PHASE_CENTER_TAPPED;
  primary_voltage 13200.0;
  secondary_voltage 120.0;
  resistance 0.00950;
  resistance1 0.01900;
  resistance2 0.01900;
  reactance 0.01040;
  reactance1 0.00520;
  reactance2 0.00520;
  shunt_resistance 147.06;
  shunt_reactance 34.25;
}
object transformer_configuration {
  name XF1_PADMOUNT_BS_25;
  power_rating 25.00;
  powerA_rating 0.0;
  powerB_rating 25.00;
  powerC_rating 0.0;
  install_type PADMOUNT;
  connect_type SINGLE_PHASE_CENTER_TAPPED;
  primary_voltage 13200.0;
  secondary_voltage 120.0;
  resistance 0.00800;
  resistance1 0.01600;
  resistance2 0.01600;
  reactance 0.01208;
  reactance1 0.00604;
  reactance2 0.00604;
  shunt_resistance 192.31;
  shunt_reactance 51.81;
}
object transformer_configuration {
  name XF1_POLETOP_BS_50;
  power_rating 50.00;
  powerA_rating 0.0;
  powerB_rating 50.00;
  powerC_rating 0.0;
  install_type POLETOP;
  connect_type SINGLE_PHASE_CENTER_TAPPED;
  primary_voltage 13200.0;
  secondary_voltage 120.0;
  resistance 0.00650;
  resistance1 0.01300;
  resistance2 0.01300;
  reactance 0.01416;
  reactance1 0.00708;
  reactance2 0.00708;
  shunt_resistance 222.22;
  shunt_reactance 64.94;
}
object transformer_configuration {
  name XF1_POLETOP_BS_15;
  power_rating 15.00;
  powerA_rating 0.0;
  powerB_rating 15.00;
  powerC_rating 0.0;
  install_type POLETOP;
  connect_type SINGLE_PHASE_CENTER_TAPPED;
  primary_voltage 13200.0;
  secondary_voltage 120.0;
  resistance 0.00850;
  resistance1 0.01700;
  resistance2 0.01700;
  reactance 0.01176;
  reactance1 0.00588;
  reactance2 0.00588;
  shunt_resistance 166.67;
  shunt_reactance 39.53;
}
object transformer_configuration {
  name XF1_POLETOP_AS_10;
  power_rating 10.00;
  powerA_rating 10.00;
  powerB_rating 0.0;
  powerC_rating 0.0;
  install_type POLETOP;
  connect_type SINGLE_PHASE_CENTER_TAPPED;
  primary_voltage 13200.0;
  secondary_voltage 120.0;
  resistance 0.00950;
  resistance1 0.01900;
  resistance2 0.01900;
  reactance 0.01040;
  reactance1 0.00520;
  reactance2 0.00520;
  shunt_resistance 147.06;
  shunt_reactance 34.25;
}
object transformer_configuration {
  name XF1_POLETOP_BS_10;
  power_rating 10.00;
  powerA_rating 0.0;
  powerB_rating 10.00;
  powerC_rating 0.0;
  install_type POLETOP;
  connect_type SINGLE_PHASE_CENTER_TAPPED;
  primary_voltage 13200.0;
  secondary_voltage 120.0;
  resistance 0.00950;
  resistance1 0.01900;
  resistance2 0.01900;
  reactance 0.01040;
  reactance1 0.00520;
  reactance2 0.00520;
  shunt_resistance 147.06;
  shunt_reactance 34.25;
}
object transformer_configuration {
  name XF1_POLETOP_CS_5;
  power_rating 5.00;
  powerA_rating 0.0;
  powerB_rating 0.0;
  powerC_rating 5.00;
  install_type POLETOP;
  connect_type SINGLE_PHASE_CENTER_TAPPED;
  primary_voltage 13200.0;
  secondary_voltage 120.0;
  resistance 0.01050;
  resistance1 0.02100;
  resistance2 0.02100;
  reactance 0.01224;
  reactance1 0.00612;
  reactance2 0.00612;
  shunt_resistance 111.11;
  shunt_reactance 29.59;
}
object transformer_configuration {
  name XF1_POLETOP_AS_5;
  power_rating 5.00;
  powerA_rating 5.00;
  powerB_rating 0.0;
  powerC_rating 0.0;
  install_type POLETOP;
  connect_type SINGLE_PHASE_CENTER_TAPPED;
  primary_voltage 13200.0;
  secondary_voltage 120.0;
  resistance 0.01050;
  resistance1 0.02100;
  resistance2 0.02100;
  reactance 0.01224;
  reactance1 0.00612;
  reactance2 0.00612;
  shunt_resistance 111.11;
  shunt_reactance 29.59;
}
object transformer_configuration {
  name XF1_POLETOP_BS_5;
  power_rating 5.00;
  powerA_rating 0.0;
  powerB_rating 5.00;
  powerC_rating 0.0;
  install_type POLETOP;
  connect_type SINGLE_PHASE_CENTER_TAPPED;
  primary_voltage 13200.0;
  secondary_voltage 120.0;
  resistance 0.01050;
  resistance1 0.02100;
  resistance2 0.02100;
  reactance 0.01224;
  reactance1 0.00612;
  reactance2 0.00612;
  shunt_resistance 111.11;
  shunt_reactance 29.59;
}
object transformer_configuration {
  name XF1_PADMOUNT_AS_10;
  power_rating 10.00;
  powerA_rating 10.00;
  powerB_rating 0.0;
  powerC_rating 0.0;
  install_type PADMOUNT;
  connect_type SINGLE_PHASE_CENTER_TAPPED;
  primary_voltage 13200.0;
  secondary_voltage 120.0;
  resistance 0.00950;
  resistance1 0.01900;
  resistance2 0.01900;
  reactance 0.01040;
  reactance1 0.00520;
  reactance2 0.00520;
  shunt_resistance 147.06;
  shunt_reactance 34.25;
}
object transformer_configuration {
  name XF1_PADMOUNT_AS_15;
  power_rating 15.00;
  powerA_rating 15.00;
  powerB_rating 0.0;
  powerC_rating 0.0;
  install_type PADMOUNT;
  connect_type SINGLE_PHASE_CENTER_TAPPED;
  primary_voltage 13200.0;
  secondary_voltage 120.0;
  resistance 0.00850;
  resistance1 0.01700;
  resistance2 0.01700;
  reactance 0.01176;
  reactance1 0.00588;
  reactance2 0.00588;
  shunt_resistance 166.67;
  shunt_reactance 39.53;
}
object transformer_configuration {
  name XF1_PADMOUNT_CS_75;
  power_rating 75.00;
  powerA_rating 0.0;
  powerB_rating 0.0;
  powerC_rating 75.00;
  install_type PADMOUNT;
  connect_type SINGLE_PHASE_CENTER_TAPPED;
  primary_voltage 13200.0;
  secondary_voltage 120.0;
  resistance 0.00625;
  resistance1 0.01250;
  resistance2 0.01250;
  reactance 0.01352;
  reactance1 0.00676;
  reactance2 0.00676;
  shunt_resistance 238.10;
  shunt_reactance 67.11;
}
object transformer_configuration {
  name XF1_POLETOP_BS_100;
  power_rating 100.00;
  powerA_rating 0.0;
  powerB_rating 100.00;
  powerC_rating 0.0;
  install_type POLETOP;
  connect_type SINGLE_PHASE_CENTER_TAPPED;
  primary_voltage 13200.0;
  secondary_voltage 120.0;
  resistance 0.00600;
  resistance1 0.01200;
  resistance2 0.01200;
  reactance 0.01752;
  reactance1 0.00876;
  reactance2 0.00876;
  shunt_resistance 250.00;
  shunt_reactance 68.97;
}
object transformer_configuration {
  name XF3_POLETOP_ABCN_300;
  power_rating 300.00;
  powerA_rating 100.00;
  powerB_rating 100.00;
  powerC_rating 100.00;
  install_type POLETOP;
  connect_type WYE_WYE;
  primary_voltage 22900.0;
  secondary_voltage 480.0;
  resistance 0.01300;
  reactance 0.04830;
  shunt_resistance 217.39;
  shunt_reactance 44.44;
}
object transformer_configuration {
  name XF3_POLETOP_ABCN_1000;
  power_rating 1000.00;
  powerA_rating 333.33;
  powerB_rating 333.33;
  powerC_rating 333.33;
  install_type POLETOP;
  connect_type WYE_WYE;
  primary_voltage 22900.0;
  secondary_voltage 480.0;
  resistance 0.00850;
  reactance 0.05690;
  shunt_resistance 232.56;
  shunt_reactance 60.61;
}
object transformer_configuration {
  name XF3_PADMOUNT_ABCN_112p5;
  power_rating 112.50;
  powerA_rating 37.50;
  powerB_rating 37.50;
  powerC_rating 37.50;
  install_type PADMOUNT;
  connect_type WYE_WYE;
  primary_voltage 22900.0;
  secondary_voltage 480.0;
  resistance 0.01450;
  reactance 0.02850;
  shunt_resistance 169.49;
  shunt_reactance 33.44;
}
object transformer_configuration {
  name XF3_PADMOUNT_ABCN_150;
  power_rating 150.00;
  powerA_rating 50.00;
  powerB_rating 50.00;
  powerC_rating 50.00;
  install_type PADMOUNT;
  connect_type WYE_WYE;
  primary_voltage 22900.0;
  secondary_voltage 480.0;
  resistance 0.01300;
  reactance 0.03250;
  shunt_resistance 185.19;
  shunt_reactance 36.36;
}
object transformer_configuration {
  name XF1_PADMOUNT_AN_75;
  power_rating 75.00;
  powerA_rating 75.00;
  powerB_rating 0.0;
  powerC_rating 0.0;
  install_type PADMOUNT;
  connect_type WYE_WYE;
  primary_voltage 22900.0;
  secondary_voltage 208.0;
  resistance 0.01600;
  reactance 0.02420;
  shunt_resistance 158.73;
  shunt_reactance 30.86;
}
object transformer_configuration {
  name XF3_PADMOUNT_ABCN_300;
  power_rating 300.00;
  powerA_rating 100.00;
  powerB_rating 100.00;
  powerC_rating 100.00;
  install_type PADMOUNT;
  connect_type WYE_WYE;
  primary_voltage 22900.0;
  secondary_voltage 480.0;
  resistance 0.01300;
  reactance 0.04830;
  shunt_resistance 217.39;
  shunt_reactance 44.44;
}
object transformer_configuration {
  name XF3_PADMOUNT_ABCN_500;
  power_rating 500.00;
  powerA_rating 166.67;
  powerB_rating 166.67;
  powerC_rating 166.67;
  install_type PADMOUNT;
  connect_type WYE_WYE;
  primary_voltage 22900.0;
  secondary_voltage 480.0;
  resistance 0.01100;
  reactance 0.04880;
  shunt_resistance 222.22;
  shunt_reactance 44.25;
}
object transformer_configuration {
  name XF3_PADMOUNT_ABCN_225;
  power_rating 225.00;
  powerA_rating 75.00;
  powerB_rating 75.00;
  powerC_rating 75.00;
  install_type PADMOUNT;
  connect_type WYE_WYE;
  primary_voltage 22900.0;
  secondary_voltage 480.0;
  resistance 0.01300;
  reactance 0.03520;
  shunt_resistance 200.00;
  shunt_reactance 40.00;
}
object transformer_configuration {
  name XF2_PADMOUNT_ABN_45;
  power_rating 45.00;
  powerA_rating 22.50;
  powerB_rating 22.50;
  powerC_rating 0.0;
  install_type PADMOUNT;
  connect_type WYE_WYE;
  primary_voltage 22900.0;
  secondary_voltage 208.0;
  resistance 0.01750;
  reactance 0.02120;
  shunt_resistance 142.86;
  shunt_reactance 25.38;
}
object transformer_configuration {
  name XF1_PADMOUNT_CN_50;
  power_rating 50.00;
  powerA_rating 0.0;
  powerB_rating 0.0;
  powerC_rating 50.00;
  install_type PADMOUNT;
  connect_type WYE_WYE;
  primary_voltage 22900.0;
  secondary_voltage 208.0;
  resistance 0.01600;
  reactance 0.02420;
  shunt_resistance 158.73;
  shunt_reactance 30.86;
}
object regulator_configuration {
  name feeder_reg_cfg;
  Control OUTPUT_VOLTAGE;
  band_center 13773.0;
  band_width 220;
  connect_type WYE_WYE;
  time_delay 30;
  raise_taps 16;
  lower_taps 16;
  regulation 0.10;
  tap_pos_A 0;
  tap_pos_B 0;
  tap_pos_C 0;
}
object overhead_line_conductor {
  name ID_1596;
  rating.summer.continuous 531.0;
  geometric_mean_radius 0.02240 ft;
  resistance 0.30600;
}
object overhead_line_conductor {
  name ID_1597;
  rating.summer.continuous 266.0;
  geometric_mean_radius 0.01142 ft;
  resistance 0.95300;
}
object overhead_line_conductor {
  name ID_1598;
  rating.summer.continuous 197.0;
  geometric_mean_radius 0.00883 ft;
  resistance 1.51970;
}
object overhead_line_conductor {
  name ID_1599;
  rating.summer.continuous 530.0;
  geometric_mean_radius 0.02300 ft;
  resistance 0.30300;
}
object overhead_line_conductor {
  name ID_1600;
  rating.summer.continuous 733.0;
  geometric_mean_radius 0.03130 ft;
  resistance 0.18590;
}
object overhead_line_conductor {
  name ID_1601;
  rating.summer.continuous 891.0;
  geometric_mean_radius 0.03550 ft;
  resistance 0.14420;
}
object overhead_line_conductor {
  name ID_1602;
  rating.summer.continuous 354.0;
  geometric_mean_radius 0.01520 ft;
  resistance 0.10500;
}
object overhead_line_conductor {
  name ID_1603;
  rating.summer.continuous 300.0;
  geometric_mean_radius 0.00600 ft;
  resistance 0.63800;
}
object overhead_line_conductor {
  name ID_1604;
  rating.summer.continuous 204.0;
  geometric_mean_radius 0.00836 ft;
  resistance 0.94500;
}
object line_spacing {
  name ID_116;
  distance_AN 36.0 in;
}
object line_spacing {
  name ID_117;
  distance_AB 48.0 in;
  distance_BC 48.0 in;
  distance_AC 48.0 in;
  distance_AN 36.0 in;
  distance_BN 36.0 in;
  distance_CN 36.0 in;
}
object line_spacing {
  name ID_118;
  distance_CN 36.0 in;
}
object line_spacing {
  name ID_119;
  distance_BN 36.0 in;
}
object line_spacing {
  name ID_120;
  distance_BC 48.0 in;
  distance_BN 36.0 in;
  distance_CN 36.0 in;
}
object line_spacing {
  name ID_121;
  distance_AB 48.0 in;
  distance_AN 36.0 in;
  distance_BN 36.0 in;
}
object line_spacing {
  name ID_122;
  distance_AC 48.0 in;
  distance_AN 36.0 in;
  distance_CN 36.0 in;
}
object line_spacing {
  name ID_123;
  distance_CN 48.0 in;
}
object line_spacing {
  name ID_124;
  distance_BN 48.0 in;
}
object line_spacing {
  name ID_125;
  distance_AB 56.0 in;
  distance_BC 56.0 in;
  distance_AC 56.0 in;
  distance_AN 48.0 in;
  distance_BN 48.0 in;
  distance_CN 48.0 in;
}
object line_spacing {
  name ID_126;
  distance_AN 48.0 in;
}
object line_spacing {
  name ID_127;
  distance_BC 56.0 in;
  distance_BN 48.0 in;
  distance_CN 48.0 in;
}
object line_spacing {
  name ID_128;
  distance_AB 56.0 in;
  distance_AN 48.0 in;
  distance_BN 48.0 in;
}
object line_spacing {
  name ID_129;
  distance_AC 56.0 in;
  distance_AN 48.0 in;
  distance_CN 48.0 in;
}
object line_configuration {
  name ID_82;
  conductor_A ID_3918;
  conductor_N ID_3918;
  spacing ID_116;
}
object line_configuration {
  name ID_83;
  conductor_A ID_3918;
  conductor_B ID_3918;
  conductor_C ID_3918;
  conductor_N ID_3918;
  spacing ID_117;
}
object line_configuration {
  name ID_84;
  conductor_C ID_3919;
  conductor_N ID_3919;
  spacing ID_118;
}
object line_configuration {
  name ID_85;
  conductor_B ID_3919;
  conductor_N ID_3919;
  spacing ID_119;
}
object line_configuration {
  name ID_86;
  conductor_C ID_3919;
  conductor_N ID_3919;
  spacing ID_118;
}
object line_configuration {
  name ID_87;
  conductor_A ID_3919;
  conductor_B ID_3919;
  conductor_C ID_3919;
  conductor_N ID_3919;
  spacing ID_117;
}
object line_configuration {
  name ID_88;
  conductor_A ID_3920;
  conductor_B ID_3920;
  conductor_C ID_3920;
  conductor_N ID_3920;
  spacing ID_117;
}
object line_configuration {
  name ID_89;
  conductor_B ID_3919;
  conductor_C ID_3919;
  conductor_N ID_3919;
  spacing ID_120;
}
object line_configuration {
  name ID_90;
  conductor_A ID_1596;
  conductor_B ID_1596;
  conductor_C ID_1596;
  conductor_N ID_1596;
  spacing ID_117;
}
object line_configuration {
  name ID_91;
  conductor_A ID_1597;
  conductor_B ID_1597;
  conductor_C ID_1597;
  conductor_N ID_1597;
  spacing ID_117;
}
object line_configuration {
  name ID_92;
  conductor_A ID_3918;
  conductor_B ID_3918;
  conductor_N ID_3918;
  spacing ID_121;
}
object line_configuration {
  name ID_93;
  conductor_A ID_1598;
  conductor_N ID_1598;
  spacing ID_116;
}
object line_configuration {
  name ID_94;
  conductor_B ID_3919;
  conductor_N ID_3919;
  spacing ID_119;
}
object line_configuration {
  name ID_95;
  conductor_B ID_3919;
  conductor_C ID_3919;
  conductor_N ID_3919;
  spacing ID_120;
}
object line_configuration {
  name ID_96;
  conductor_A ID_1599;
  conductor_B ID_1599;
  conductor_C ID_1599;
  conductor_N ID_1599;
  spacing ID_117;
}
object line_configuration {
  name ID_97;
  conductor_A ID_1600;
  conductor_B ID_1600;
  conductor_C ID_1600;
  conductor_N ID_1600;
  spacing ID_117;
}
object line_configuration {
  name ID_98;
  conductor_A ID_3921;
  conductor_N ID_3921;
  spacing ID_116;
}
object line_configuration {
  name ID_99;
  conductor_C ID_3919;
  conductor_N ID_3919;
  spacing ID_118;
}
object line_configuration {
  name ID_100;
  conductor_A ID_1598;
  conductor_C ID_1598;
  conductor_N ID_1598;
  spacing ID_122;
}
object line_configuration {
  name ID_101;
  conductor_A ID_1597;
  conductor_N ID_1597;
  spacing ID_116;
}
object line_configuration {
  name ID_102;
  conductor_A ID_1598;
  conductor_B ID_1598;
  conductor_C ID_1598;
  conductor_N ID_1598;
  spacing ID_117;
}
object line_configuration {
  name ID_103;
  conductor_A ID_1600;
  conductor_B ID_1600;
  conductor_C ID_1600;
  conductor_N ID_1600;
  spacing ID_117;
}
object line_configuration {
  name ID_104;
  conductor_A ID_1599;
  conductor_B ID_1599;
  conductor_C ID_1599;
  conductor_N ID_1599;
  spacing ID_117;
}
object line_configuration {
  name ID_105;
  conductor_A ID_1598;
  conductor_B ID_1598;
  conductor_C ID_1598;
  conductor_N ID_1598;
  spacing ID_117;
}
object line_configuration {
  name ID_106;
  conductor_A ID_3922;
  conductor_B ID_3922;
  conductor_C ID_3922;
  conductor_N ID_3922;
  spacing ID_117;
}
object line_configuration {
  name ID_107;
  conductor_A ID_3923;
  conductor_B ID_3923;
  conductor_C ID_3923;
  conductor_N ID_3923;
  spacing ID_117;
}
object line_configuration {
  name ID_108;
  conductor_C ID_1601;
  conductor_N ID_1601;
  spacing ID_123;
}
object line_configuration {
  name ID_109;
  conductor_B ID_1601;
  conductor_N ID_1601;
  spacing ID_124;
}
object line_configuration {
  name ID_110;
  conductor_A ID_1598;
  conductor_B ID_1598;
  conductor_C ID_1598;
  conductor_N ID_1598;
  spacing ID_117;
}
object line_configuration {
  name ID_111;
  conductor_A ID_1601;
  conductor_B ID_1601;
  conductor_C ID_1601;
  conductor_N ID_1601;
  spacing ID_125;
}
object line_configuration {
  name ID_112;
  conductor_A ID_1601;
  conductor_N ID_1601;
  spacing ID_126;
}
object line_configuration {
  name ID_113;
  conductor_B ID_1601;
  conductor_C ID_1601;
  conductor_N ID_1601;
  spacing ID_127;
}
object line_configuration {
  name ID_114;
  conductor_A ID_1601;
  conductor_B ID_1601;
  conductor_N ID_1601;
  spacing ID_128;
}
object line_configuration {
  name ID_115;
  conductor_A ID_1601;
  conductor_C ID_1601;
  conductor_N ID_1601;
  spacing ID_129;
}
object triplex_line_conductor {
  name triplex_4/0 AA;
  resistance 0.48;
  geometric_mean_radius 0.0158;
  rating.summer.continuous 1000.0;
  rating.summer.emergency 1000.0;
  rating.winter.continuous 1000.0;
  rating.winter.emergency 1000.0;
}
object triplex_line_configuration {
  name ID_2077;
  conductor_1 triplex_4/0 AA;
  conductor_2 triplex_4/0 AA;
  conductor_N triplex_4/0 AA;
  insulation_thickness 0.08;
  diameter 0.522;
}
object underground_line_conductor {
  name ID_3918;
  rating.summer.continuous 142.0;
  outer_diameter 1.27;
  conductor_gmr 0.01142 ft;
  conductor_diameter 0.362;
  conductor_resistance 0.88704;
  neutral_gmr 0.00208 ft;
  neutral_resistance 14.87;
  neutral_diameter 0.0641;
  neutral_strands 16.0;
  insulation_relative_permitivitty 2.3;
}
object underground_line_conductor {
  name ID_3919;
  rating.summer.continuous 662.0;
  outer_diameter 2.291;
  conductor_gmr 0.03592 ft;
  conductor_diameter 1.117;
  conductor_resistance 0.057024;
  neutral_gmr 0.00330 ft;
  neutral_resistance 5.9026;
  neutral_diameter 0.1019;
  neutral_strands 20.0;
  insulation_relative_permitivitty 2.3;
}
object underground_line_conductor {
  name ID_3920;
  rating.summer.continuous 775.0;
  outer_diameter 1.87;
  conductor_gmr 0.0371 ft;
  conductor_diameter 1.15;
  conductor_resistance 0.1162;
  shield_gmr 0.069167;
  shield_resistance 2.0135;
  shield_thickness 0.005;
  shield_diameter 1.66;
  insulation_relative_permitivitty 2.3;
}
object underground_line_conductor {
  name ID_3921;
  rating.summer.continuous 101.0;
  outer_diameter 1.021;
  conductor_gmr 0.00905 ft;
  conductor_diameter 0.283;
  conductor_resistance 1.4124;
  neutral_gmr 0.00208 ft;
  neutral_resistance 14.87;
  neutral_diameter 0.0641;
  neutral_strands 7.0;
  insulation_relative_permitivitty 2.3;
}
object underground_line_conductor {
  name ID_3922;
  rating.summer.continuous 488.0;
  outer_diameter 2.15;
  conductor_gmr 0.0371 ft;
  conductor_diameter 1.152;
  conductor_resistance 0.091872;
  neutral_gmr 0.00330 ft;
  neutral_resistance 5.9026;
  neutral_diameter 0.1019;
  neutral_strands 20.0;
  insulation_relative_permitivitty 2.3;
}
object underground_line_conductor {
  name ID_3923;
  rating.summer.continuous 564.0;
  outer_diameter 2.291;
  conductor_gmr 0.03592 ft;
  conductor_diameter 1.117;
  conductor_resistance 0.093456;
  neutral_gmr 0.00330 ft;
  neutral_resistance 5.9026;
  neutral_diameter 0.1019;
  neutral_strands 20.0;
  insulation_relative_permitivitty 2.3;
}
object fuse {
  name R5-25-00-1_fuse_1;
// downstream 201.25 kva on ABCS
  phases ABCN;
  from R5-25-00-1_node_274;
  to R5-25-00-1_node_2;
  current_limit 40;
  status CLOSED;
  mean_replacement_time 3600;
}
object fuse {
  name R5-25-00-1_fuse_2;
// downstream 33.54 kva on AS
  phases AN;
  from R5-25-00-1_node_6;
  to R5-25-00-1_node_132;
  current_limit 40;
  status CLOSED;
  mean_replacement_time 3600;
}
object fuse {
  name R5-25-00-1_fuse_3;
// downstream 44.72 kva on CS
  phases CN;
  from R5-25-00-1_node_9;
  to R5-25-00-1_node_10;
  current_limit 40;
  status CLOSED;
  mean_replacement_time 3600;
}
object fuse {
  name R5-25-00-1_fuse_4;
// downstream 22.36 kva on BS
  phases BN;
  from R5-25-00-1_node_794;
  to R5-25-00-1_node_39;
  current_limit 40;
  status CLOSED;
  mean_replacement_time 3600;
}
object fuse {
  name R5-25-00-1_fuse_5;
// downstream 268.33 kva on ABC
  phases ABCN;
  from R5-25-00-1_node_248;
  to R5-25-00-1_node_247;
  current_limit 40;
  status CLOSED;
  mean_replacement_time 3600;
}
object fuse {
  name R5-25-00-1_fuse_6;
// downstream 1039.77 kva on ABC
  phases ABCN;
  from R5-25-00-1_node_250;
  to R5-25-00-1_node_249;
  current_limit 100;
  status CLOSED;
  mean_replacement_time 3600;
}
object fuse {
  name R5-25-00-1_fuse_7;
// downstream 324.23 kva on ABCS
  phases ABCN;
  from R5-25-00-1_node_273;
  to R5-25-00-1_node_272;
  current_limit 40;
  status CLOSED;
  mean_replacement_time 3600;
}
object fuse {
  name R5-25-00-1_fuse_8;
// downstream 33.54 kva on CS
  phases CN;
  from R5-25-00-1_node_305;
  to R5-25-00-1_node_204;
  current_limit 40;
  status CLOSED;
  mean_replacement_time 3600;
}
object fuse {
  name R5-25-00-1_fuse_9;
  phases CN;
  from R5-25-00-1_node_772;
  to R5-25-00-1_node_310;
  current_limit 50000;
  status CLOSED;
  mean_replacement_time 3600;
}
object fuse {
  name R5-25-00-1_fuse_10;
// downstream 50.31 kva on AS
  phases AN;
  from R5-25-00-1_node_311;
  to R5-25-00-1_node_179;
  current_limit 40;
  status CLOSED;
  mean_replacement_time 3600;
}
object fuse {
  name R5-25-00-1_fuse_11;
// downstream 55.90 kva on AS
  phases AN;
  from R5-25-00-1_node_145;
  to R5-25-00-1_node_316;
  current_limit 40;
  status CLOSED;
  mean_replacement_time 3600;
}
object fuse {
  name R5-25-00-1_fuse_12;
// downstream 16.77 kva on BS
  phases BN;
  from R5-25-00-1_node_321;
  to R5-25-00-1_node_322;
  current_limit 40;
  status CLOSED;
  mean_replacement_time 3600;
}
object fuse {
  name R5-25-00-1_fuse_13;
// downstream 33.54 kva on BS
  phases BN;
  from R5-25-00-1_node_328;
  to R5-25-00-1_node_327;
  current_limit 40;
  status CLOSED;
  mean_replacement_time 3600;
}
object fuse {
  name R5-25-00-1_fuse_14;
// downstream 44.72 kva on CS
  phases CN;
  from R5-25-00-1_node_329;
  to R5-25-00-1_node_330;
  current_limit 40;
  status CLOSED;
  mean_replacement_time 3600;
}
object fuse {
  name R5-25-00-1_fuse_15;
// downstream 67.08 kva on CS
  phases CN;
  from R5-25-00-1_node_227;
  to R5-25-00-1_node_166;
  current_limit 40;
  status CLOSED;
  mean_replacement_time 3600;
}
object fuse {
  name R5-25-00-1_fuse_16;
// downstream 33.54 kva on AS
  phases AN;
  from R5-25-00-1_node_226;
  to R5-25-00-1_node_229;
  current_limit 40;
  status CLOSED;
  mean_replacement_time 3600;
}
object fuse {
  name R5-25-00-1_fuse_17;
// downstream 33.54 kva on AS
  phases AN;
  from R5-25-00-1_node_353;
  to R5-25-00-1_node_182;
  current_limit 40;
  status CLOSED;
  mean_replacement_time 3600;
}
object fuse {
  name R5-25-00-1_fuse_18;
// downstream 16.77 kva on CS
  phases CN;
  from R5-25-00-1_node_354;
  to R5-25-00-1_node_355;
  current_limit 40;
  status CLOSED;
  mean_replacement_time 3600;
}
object fuse {
  name R5-25-00-1_fuse_19;
// downstream 22.36 kva on CS
  phases CN;
  from R5-25-00-1_node_362;
  to R5-25-00-1_node_363;
  current_limit 40;
  status CLOSED;
  mean_replacement_time 3600;
}
object fuse {
  name R5-25-00-1_fuse_20;
// downstream 22.36 kva on CS
  phases CN;
  from R5-25-00-1_node_200;
  to R5-25-00-1_node_364;
  current_limit 40;
  status CLOSED;
  mean_replacement_time 3600;
}
object fuse {
  name R5-25-00-1_fuse_21;
// downstream 22.36 kva on CS
  phases CN;
  from R5-25-00-1_node_773;
  to R5-25-00-1_node_370;
  current_limit 40;
  status CLOSED;
  mean_replacement_time 3600;
}
object fuse {
  name R5-25-00-1_fuse_22;
// downstream 16.77 kva on CS
  phases CN;
  from R5-25-00-1_node_371;
  to R5-25-00-1_node_149;
  current_limit 40;
  status CLOSED;
  mean_replacement_time 3600;
}
object fuse {
  name R5-25-00-1_fuse_23;
// downstream 22.36 kva on CS
  phases CN;
  from R5-25-00-1_node_377;
  to R5-25-00-1_node_378;
  current_limit 40;
  status CLOSED;
  mean_replacement_time 3600;
}
object fuse {
  name R5-25-00-1_fuse_24;
// downstream 50.31 kva on CS
  phases CN;
  from R5-25-00-1_node_227;
  to R5-25-00-1_node_163;
  current_limit 40;
  status CLOSED;
  mean_replacement_time 3600;
}
object fuse {
  name R5-25-00-1_fuse_25;
// downstream 44.72 kva on AS
  phases AN;
  from R5-25-00-1_node_383;
  to R5-25-00-1_node_384;
  current_limit 40;
  status CLOSED;
  mean_replacement_time 3600;
}
object fuse {
  name R5-25-00-1_fuse_26;
// downstream 117.39 kva on CS
  phases CN;
  from R5-25-00-1_node_389;
  to R5-25-00-1_node_238;
  current_limit 40;
  status CLOSED;
  mean_replacement_time 3600;
}
object fuse {
  name R5-25-00-1_fuse_27;
// downstream 178.89 kva on CS
  phases CN;
  from R5-25-00-1_node_411;
  to R5-25-00-1_node_171;
  current_limit 40;
  status CLOSED;
  mean_replacement_time 3600;
}
object fuse {
  name R5-25-00-1_fuse_28;
// downstream 27.95 kva on BS
  phases BN;
  from R5-25-00-1_node_412;
  to R5-25-00-1_node_187;
  current_limit 40;
  status CLOSED;
  mean_replacement_time 3600;
}
object fuse {
  name R5-25-00-1_fuse_29;
// downstream 61.49 kva on BS
  phases BN;
  from R5-25-00-1_node_426;
  to R5-25-00-1_node_427;
  current_limit 40;
  status CLOSED;
  mean_replacement_time 3600;
}
object fuse {
  name R5-25-00-1_fuse_30;
// downstream 22.36 kva on BS
  phases BN;
  from R5-25-00-1_node_428;
  to R5-25-00-1_node_429;
  current_limit 40;
  status CLOSED;
  mean_replacement_time 3600;
}
object fuse {
  name R5-25-00-1_fuse_31;
// downstream 83.85 kva on AS
  phases AN;
  from R5-25-00-1_node_432;
  to R5-25-00-1_node_176;
  current_limit 40;
  status CLOSED;
  mean_replacement_time 3600;
}
object fuse {
  name R5-25-00-1_fuse_32;
  phases CN;
  from R5-25-00-1_node_439;
  to R5-25-00-1_node_228;
  current_limit 50000;
  status CLOSED;
  mean_replacement_time 3600;
}
object fuse {
  name R5-25-00-1_fuse_33;
// downstream 67.08 kva on CS
  phases CN;
  from R5-25-00-1_node_444;
  to R5-25-00-1_node_445;
  current_limit 40;
  status CLOSED;
  mean_replacement_time 3600;
}
object fuse {
  name R5-25-00-1_fuse_34;
// downstream 145.34 kva on AS
  phases AN;
  from R5-25-00-1_node_411;
  to R5-25-00-1_node_172;
  current_limit 40;
  status CLOSED;
  mean_replacement_time 3600;
}
object fuse {
  name R5-25-00-1_fuse_35;
// downstream 156.52 kva on AS
  phases AN;
  from R5-25-00-1_node_389;
  to R5-25-00-1_node_173;
  current_limit 40;
  status CLOSED;
  mean_replacement_time 3600;
}
object fuse {
  name R5-25-00-1_fuse_36;
// downstream 16.77 kva on AS
  phases AN;
  from R5-25-00-1_node_480;
  to R5-25-00-1_node_481;
  current_limit 40;
  status CLOSED;
  mean_replacement_time 3600;
}
object fuse {
  name R5-25-00-1_fuse_37;
// downstream 50.31 kva on AS
  phases AN;
  from R5-25-00-1_node_491;
  to R5-25-00-1_node_492;
  current_limit 40;
  status CLOSED;
  mean_replacement_time 3600;
}
object fuse {
  name R5-25-00-1_fuse_38;
// downstream 342.12 kva on BCS
  phases BCN;
  from R5-25-00-1_node_123;
  to R5-25-00-1_node_77;
  current_limit 40;
  status CLOSED;
  mean_replacement_time 3600;
}
object fuse {
  name R5-25-00-1_fuse_39;
// downstream 279.51 kva on ABS
  phases ABN;
  from R5-25-00-1_node_518;
  to R5-25-00-1_node_519;
  current_limit 40;
  status CLOSED;
  mean_replacement_time 3600;
}
object fuse {
  name R5-25-00-1_fuse_40;
// downstream 44.72 kva on AS
  phases AN;
  from R5-25-00-1_node_123;
  to R5-25-00-1_node_76;
  current_limit 40;
  status CLOSED;
  mean_replacement_time 3600;
}
object fuse {
  name R5-25-00-1_fuse_41;
// downstream 229.20 kva on ABS
  phases ABN;
  from R5-25-00-1_node_595;
  to R5-25-00-1_node_61;
  current_limit 40;
  status CLOSED;
  mean_replacement_time 3600;
}
object fuse {
  name R5-25-00-1_fuse_42;
// downstream 50.31 kva on AS
  phases AN;
  from R5-25-00-1_node_624;
  to R5-25-00-1_node_625;
  current_limit 40;
  status CLOSED;
  mean_replacement_time 3600;
}
object fuse {
  name R5-25-00-1_fuse_43;
// downstream 55.90 kva on AS
  phases AN;
  from R5-25-00-1_node_635;
  to R5-25-00-1_node_636;
  current_limit 40;
  status CLOSED;
  mean_replacement_time 3600;
}
object fuse {
  name R5-25-00-1_fuse_44;
// downstream 50.31 kva on BS
  phases BN;
  from R5-25-00-1_node_637;
  to R5-25-00-1_node_638;
  current_limit 40;
  status CLOSED;
  mean_replacement_time 3600;
}
object fuse {
  name R5-25-00-1_fuse_45;
// downstream 139.75 kva on AS
  phases AN;
  from R5-25-00-1_node_641;
  to R5-25-00-1_node_642;
  current_limit 40;
  status CLOSED;
  mean_replacement_time 3600;
}
object fuse {
  name R5-25-00-1_fuse_46;
// downstream 61.49 kva on AS
  phases AN;
  from R5-25-00-1_node_658;
  to R5-25-00-1_node_659;
  current_limit 40;
  status CLOSED;
  mean_replacement_time 3600;
}
object fuse {
  name R5-25-00-1_fuse_47;
// downstream 61.49 kva on AS
  phases AN;
  from R5-25-00-1_node_110;
  to R5-25-00-1_node_674;
  current_limit 40;
  status CLOSED;
  mean_replacement_time 3600;
}
object fuse {
  name R5-25-00-1_fuse_48;
// downstream 55.90 kva on BS
  phases BN;
  from R5-25-00-1_node_675;
  to R5-25-00-1_node_676;
  current_limit 40;
  status CLOSED;
  mean_replacement_time 3600;
}
object fuse {
  name R5-25-00-1_fuse_49;
// downstream 16.77 kva on BS
  phases BN;
  from R5-25-00-1_node_934;
  to R5-25-00-1_node_935;
  current_limit 40;
  status CLOSED;
  mean_replacement_time 3600;
}
object fuse {
  name R5-25-00-1_fuse_50;
// downstream 16.77 kva on CS
  phases CN;
  from R5-25-00-1_node_714;
  to R5-25-00-1_node_715;
  current_limit 40;
  status CLOSED;
  mean_replacement_time 3600;
}
object fuse {
  name R5-25-00-1_fuse_51;
// downstream 16.77 kva on CS
  phases CN;
  from R5-25-00-1_node_155;
  to R5-25-00-1_node_156;
  current_limit 40;
  status CLOSED;
  mean_replacement_time 3600;
}
object fuse {
  name R5-25-00-1_fuse_52;
// downstream 139.75 kva on BS
  phases BN;
  from R5-25-00-1_node_719;
  to R5-25-00-1_node_720;
  current_limit 40;
  status CLOSED;
  mean_replacement_time 3600;
}
object fuse {
  name R5-25-00-1_fuse_53;
// downstream 361.12 kva on ACS
  phases ACN;
  from R5-25-00-1_node_725;
  to R5-25-00-1_node_726;
  current_limit 40;
  status CLOSED;
  mean_replacement_time 3600;
}
object fuse {
  name R5-25-00-1_fuse_54;
// downstream 22.36 kva on BS
  phases BN;
  from R5-25-00-1_node_225;
  to R5-25-00-1_node_168;
  current_limit 40;
  status CLOSED;
  mean_replacement_time 3600;
}
object fuse {
  name R5-25-00-1_fuse_55;
// downstream 33.54 kva on CS
  phases CN;
  from R5-25-00-1_node_225;
  to R5-25-00-1_node_742;
  current_limit 40;
  status CLOSED;
  mean_replacement_time 3600;
}
object fuse {
  name R5-25-00-1_fuse_56;
// downstream 16.77 kva on CS
  phases CN;
  from R5-25-00-1_node_226;
  to R5-25-00-1_node_147;
  current_limit 40;
  status CLOSED;
  mean_replacement_time 3600;
}
object fuse {
  name R5-25-00-1_fuse_57;
// downstream 44.72 kva on CS
  phases CN;
  from R5-25-00-1_node_737;
  to R5-25-00-1_node_747;
  current_limit 40;
  status CLOSED;
  mean_replacement_time 3600;
}
object fuse {
  name R5-25-00-1_fuse_58;
// downstream 33.54 kva on BS
  phases BN;
  from R5-25-00-1_node_753;
  to R5-25-00-1_node_239;
  current_limit 40;
  status CLOSED;
  mean_replacement_time 3600;
}
object fuse {
  name R5-25-00-1_fuse_59;
// downstream 78.26 kva on BS
  phases BN;
  from R5-25-00-1_node_756;
  to R5-25-00-1_node_722;
  current_limit 40;
  status CLOSED;
  mean_replacement_time 3600;
}
object fuse {
  name R5-25-00-1_fuse_60;
// downstream 240.38 kva on CS
  phases CN;
  from R5-25-00-1_node_758;
  to R5-25-00-1_node_759;
  current_limit 65;
  status CLOSED;
  mean_replacement_time 3600;
}
object fuse {
  name R5-25-00-1_fuse_61;
// downstream 11.18 kva on BS
  phases BN;
  from R5-25-00-1_node_444;
  to R5-25-00-1_node_146;
  current_limit 40;
  status CLOSED;
  mean_replacement_time 3600;
}
object fuse {
  name R5-25-00-1_fuse_62;
// downstream 259.38 kva on CS
  phases CN;
  from R5-25-00-1_node_763;
  to R5-25-00-1_node_762;
  current_limit 65;
  status CLOSED;
  mean_replacement_time 3600;
}
object fuse {
  name R5-25-00-1_fuse_63;
// downstream 100.62 kva on AS
  phases AN;
  from R5-25-00-1_node_142;
  to R5-25-00-1_node_143;
  current_limit 40;
  status CLOSED;
  mean_replacement_time 3600;
}
object fuse {
  name R5-25-00-1_fuse_64;
// downstream 22.36 kva on CS
  phases CN;
  from R5-25-00-1_node_783;
  to R5-25-00-1_node_784;
  current_limit 40;
  status CLOSED;
  mean_replacement_time 3600;
}
object fuse {
  name R5-25-00-1_fuse_65;
// downstream 83.85 kva on CS
  phases CN;
  from R5-25-00-1_node_786;
  to R5-25-00-1_node_787;
  current_limit 40;
  status CLOSED;
  mean_replacement_time 3600;
}
object fuse {
  name R5-25-00-1_fuse_66;
// downstream 67.08 kva on ABCS
  phases ABCN;
  from R5-25-00-1_node_110;
  to R5-25-00-1_node_34;
  current_limit 40;
  status CLOSED;
  mean_replacement_time 3600;
}
object fuse {
  name R5-25-00-1_fuse_67;
// downstream 39.13 kva on AS
  phases AN;
  from R5-25-00-1_node_797;
  to R5-25-00-1_node_798;
  current_limit 40;
  status CLOSED;
  mean_replacement_time 3600;
}
object fuse {
  name R5-25-00-1_fuse_68;
// downstream 100.62 kva on ABCS
  phases ABCN;
  from R5-25-00-1_node_124;
  to R5-25-00-1_node_801;
  current_limit 40;
  status CLOSED;
  mean_replacement_time 3600;
}
object fuse {
  name R5-25-00-1_fuse_69;
// downstream 152.05 kva on CS
  phases CN;
  from R5-25-00-1_node_124;
  to R5-25-00-1_node_73;
  current_limit 40;
  status CLOSED;
  mean_replacement_time 3600;
}
object fuse {
  name R5-25-00-1_fuse_70;
// downstream 22.36 kva on BS
  phases BN;
  from R5-25-00-1_node_807;
  to R5-25-00-1_node_808;
  current_limit 40;
  status CLOSED;
  mean_replacement_time 3600;
}
object fuse {
  name R5-25-00-1_fuse_71;
// downstream 4.47 kva on BS
  phases BN;
  from R5-25-00-1_node_810;
  to R5-25-00-1_node_811;
  current_limit 40;
  status CLOSED;
  mean_replacement_time 3600;
}
object fuse {
  name R5-25-00-1_fuse_72;
// downstream 425.97 kva on BS
  phases BN;
  from R5-25-00-1_node_929;
  to R5-25-00-1_node_813;
  current_limit 100;
  status CLOSED;
  mean_replacement_time 3600;
}
object fuse {
  name R5-25-00-1_fuse_73;
// downstream 766.62 kva on ABC
  phases ABCN;
  from R5-25-00-1_node_258;
  to R5-25-00-1_node_257;
  current_limit 65;
  status CLOSED;
  mean_replacement_time 3600;
}
object fuse {
  name R5-25-00-1_fuse_74;
// downstream 212.43 kva on ABCS
  phases ABCN;
  from R5-25-00-1_node_296;
  to R5-25-00-1_node_295;
  current_limit 40;
  status CLOSED;
  mean_replacement_time 3600;
}
object fuse {
  name R5-25-00-1_fuse_75;
// downstream 245.97 kva on ABCS
  phases ABCN;
  from R5-25-00-1_node_284;
  to R5-25-00-1_node_283;
  current_limit 40;
  status CLOSED;
  mean_replacement_time 3600;
}
object switch {
  name R5-25-00-1_switch_1;
  phases ABCN;
  from R5-25-00-1_node_18;
  to R5-25-00-1_node_19;
  status CLOSED;
}
object switch {
  name R5-25-00-1_switch_2;
// downstream 1308.10 kva on ABC
  phases ABCN;
  from R5-25-00-1_node_251;
  to R5-25-00-1_node_245;
  status CLOSED;
}
object switch {
  name R5-25-00-1_switch_3;
  phases ABCN;
  from R5-25-00-1_node_260;
  to R5-25-00-1_node_259;
  status CLOSED;
}
object switch {
  name R5-25-00-1_switch_4;
// downstream 3707.63 kva on ABCS
  phases ABCN;
  from R5-25-00-1_node_255;
  to R5-25-00-1_node_261;
  status CLOSED;
}
object switch {
  name R5-25-00-1_switch_5;
// downstream 4474.25 kva on ABCS
  phases ABCN;
  from R5-25-00-1_node_262;
  to R5-25-00-1_node_256;
  status CLOSED;
}
object switch {
  name R5-25-00-1_switch_6;
  phases ABCN;
  from R5-25-00-1_node_268;
  to R5-25-00-1_node_267;
  status CLOSED;
}
object switch {
  name R5-25-00-1_switch_7;
// downstream 3182.15 kva on ABCS
  phases ABCN;
  from R5-25-00-1_node_270;
  to R5-25-00-1_node_275;
  status CLOSED;
}
object switch {
  name R5-25-00-1_switch_8;
// downstream 3707.63 kva on ABCS
  phases ABCN;
  from R5-25-00-1_node_276;
  to R5-25-00-1_node_271;
  status CLOSED;
}
object switch {
  name R5-25-00-1_switch_9;
// downstream 1308.10 kva on ABC
  phases ABCN;
  from R5-25-00-1_node_286;
  to R5-25-00-1_node_285;
  status CLOSED;
}
object switch {
  name R5-25-00-1_switch_10;
// downstream 1554.07 kva on ABCS
  phases ABCN;
  from R5-25-00-1_node_287;
  to R5-25-00-1_node_281;
  status CLOSED;
}
object switch {
  name R5-25-00-1_switch_11;
  phases ABCN;
  from R5-25-00-1_node_282;
  to R5-25-00-1_node_288;
  status CLOSED;
}
object switch {
  name R5-25-00-1_switch_12;
// downstream 1554.07 kva on ABCS
  phases ABCN;
  from R5-25-00-1_node_298;
  to R5-25-00-1_node_297;
  status CLOSED;
}
object switch {
  name R5-25-00-1_switch_13;
// downstream 1415.66 kva on ABCS
  phases ABCN;
  from R5-25-00-1_node_293;
  to R5-25-00-1_node_299;
  status CLOSED;
}
object switch {
  name R5-25-00-1_switch_14;
// downstream 3182.15 kva on ABCS
  phases ABCN;
  from R5-25-00-1_node_300;
  to R5-25-00-1_node_294;
  status CLOSED;
}
object switch {
  name R5-25-00-1_switch_15;
  phases ABCN;
  from R5-25-00-1_node_876;
  to R5-25-00-1_node_877;
  status CLOSED;
}
object switch {
  name R5-25-00-1_switch_16;
// downstream 256.62 kva on ABCS
  phases ABCN;
  from R5-25-00-1_node_879;
  to R5-25-00-1_node_878;
  status CLOSED;
}
object switch {
  name R5-25-00-1_switch_17;
// downstream 982.66 kva on ABCS
  phases ABCN;
  from R5-25-00-1_node_881;
  to R5-25-00-1_node_880;
  status CLOSED;
}
object switch {
  name R5-25-00-1_switch_18;
  phases ABCN;
  from R5-25-00-1_node_144;
  to R5-25-00-1_node_231;
  status CLOSED;
}
object switch {
  name R5-25-00-1_switch_19;
  phases ABCN;
  from R5-25-00-1_node_882;
  to R5-25-00-1_node_883;
  status CLOSED;
}
object switch {
  name R5-25-00-1_switch_20;
// downstream 4311.53 kva on ABCS
  phases ABCN;
  from R5-25-00-1_node_885;
  to R5-25-00-1_node_886;
  status CLOSED;
}
object switch {
  name R5-25-00-1_switch_21;
// downstream 4087.74 kva on ABCS
  phases ABCN;
  from R5-25-00-1_node_888;
  to R5-25-00-1_node_887;
  status CLOSED;
}
object switch {
  name R5-25-00-1_switch_22;
  phases ABCN;
  from R5-25-00-1_node_944;
  to R5-25-00-1_node_943;
  status CLOSED;
}
object switch {
  name R5-25-00-1_switch_23;
// downstream 8785.77 kva on ABCS
  phases ABCN;
  from R5-25-00-1_node_890;
  to R5-25-00-1_node_889;
  status CLOSED;
}
object switch {
  name R5-25-00-1_switch_24;
  phases ABCN;
  from R5-25-00-1_node_892;
  to R5-25-00-1_node_891;
  status CLOSED;
}
object switch {
  name R5-25-00-1_switch_25;
// downstream 3921.95 kva on ABCS
  phases ABCN;
  from R5-25-00-1_node_893;
  to R5-25-00-1_node_894;
  status CLOSED;
}
object switch {
  name R5-25-00-1_switch_26;
// downstream 4474.25 kva on ABCS
  phases ABCN;
  from R5-25-00-1_node_896;
  to R5-25-00-1_node_895;
  status CLOSED;
}
object switch {
  name R5-25-00-1_switch_27;
// downstream 1415.66 kva on ABCS
  phases ABCN;
  from R5-25-00-1_node_898;
  to R5-25-00-1_node_897;
  status CLOSED;
}
object switch {
  name R5-25-00-1_switch_28;
// downstream 4311.53 kva on ABCS
  phases ABCN;
  from R5-25-00-1_node_135;
  to R5-25-00-1_node_134;
  status CLOSED;
}
object switch {
  name R5-25-00-1_switch_29;
// downstream 13.42 kva on ABCS
  phases ABCN;
  from R5-25-00-1_node_903;
  to R5-25-00-1_node_902;
  status CLOSED;
}
object switch {
  name R5-25-00-1_switch_30;
// downstream 4474.25 kva on ABCS
  phases ABCN;
  from R5-25-00-1_node_904;
  to R5-25-00-1_node_905;
  status CLOSED;
}
object switch {
  name R5-25-00-1_switch_31;
// downstream 13.42 kva on ABCS
  phases ABCN;
  from R5-25-00-1_node_916;
  to R5-25-00-1_node_917;
  status CLOSED;
}
object switch {
  name R5-25-00-1_switch_32;
// downstream 8785.77 kva on ABCS
  phases ABCN;
  from R5-25-00-1_node_914;
  to R5-25-00-1_node_915;
  status CLOSED;
}
object overhead_line {
  name R5-25-00-1_ol_1;
// downstream 3899.99 kva on ABCS
  phases ABCN;
  from R5-25-00-1_node_861;
  to R5-25-00-1_node_27;
  length 316.638;
  configuration ID_90;
}
object overhead_line {
  name R5-25-00-1_ol_2;
// downstream 673.07 kva on ABCS
  phases ABCN;
  from R5-25-00-1_node_941;
  to R5-25-00-1_node_866;
  length 134.678;
  configuration ID_91;
}
object overhead_line {
  name R5-25-00-1_ol_3;
// downstream 673.07 kva on ABCS
  phases ABCN;
  from R5-25-00-1_node_28;
  to R5-25-00-1_node_941;
  length 124.524;
  configuration ID_91;
}
object overhead_line {
  name R5-25-00-1_ol_4;
// downstream 453.39 kva on ABCS
  phases ABCN;
  from R5-25-00-1_node_856;
  to R5-25-00-1_node_31;
  length 57.488;
  configuration ID_91;
}
object overhead_line {
  name R5-25-00-1_ol_5;
// downstream 38.73 kva on ABCS
  phases ABCN;
  from R5-25-00-1_node_854;
  to R5-25-00-1_node_33;
  length 120.800;
  configuration ID_91;
}
object overhead_line {
  name R5-25-00-1_ol_6;
// downstream 22.36 kva on AS
  phases AN;
  from R5-25-00-1_node_800;
  to R5-25-00-1_node_75;
  length 156.586;
  configuration ID_93;
}
object overhead_line {
  name R5-25-00-1_ol_7;
// downstream 4195.34 kva on ABCS
  phases ABCN;
  from R5-25-00-1_node_133;
  to R5-25-00-1_node_852;
  length 238.479;
  configuration ID_96;
}
object overhead_line {
  name R5-25-00-1_ol_8;
// downstream 4311.53 kva on ABCS
  phases ABCN;
  from R5-25-00-1_node_134;
  to R5-25-00-1_node_900;
  length 150.063;
  configuration ID_96;
}
object overhead_line {
  name R5-25-00-1_ol_9;
// downstream 2723.50 kva on ABCS
  phases ABCN;
  from R5-25-00-1_node_28;
  to R5-25-00-1_node_930;
  length 18.607;
  configuration ID_90;
}
object overhead_line {
  name R5-25-00-1_ol_10;
  phases ABCN;
  from R5-25-00-1_node_930;
  to R5-25-00-1_node_931;
  length 85.800;
  configuration ID_91;
}
object overhead_line {
  name R5-25-00-1_ol_11;
  phases ABCN;
  from R5-25-00-1_node_910;
  to R5-25-00-1_node_932;
  length 86.595;
  configuration ID_97;
}
object overhead_line {
  name R5-25-00-1_ol_12;
// downstream 140.87 kva on ACS
  phases ACN;
  from R5-25-00-1_node_726;
  to R5-25-00-1_node_311;
  length 334.226;
  configuration ID_100;
}
object overhead_line {
  name R5-25-00-1_ol_13;
// downstream 100.62 kva on AS
  phases AN;
  from R5-25-00-1_node_143;
  to R5-25-00-1_node_779;
  length 63.112;
  configuration ID_101;
}
object overhead_line {
  name R5-25-00-1_ol_14;
// downstream 100.62 kva on AS
  phases AN;
  from R5-25-00-1_node_779;
  to R5-25-00-1_node_780;
  length 252.075;
  configuration ID_101;
}
object overhead_line {
  name R5-25-00-1_ol_15;
// downstream 44.72 kva on AS
  phases AN;
  from R5-25-00-1_node_780;
  to R5-25-00-1_node_781;
  length 83.005;
  configuration ID_101;
}
object overhead_line {
  name R5-25-00-1_ol_16;
// downstream 44.72 kva on AS
  phases AN;
  from R5-25-00-1_node_781;
  to R5-25-00-1_node_782;
  length 82.519;
  configuration ID_101;
}
object overhead_line {
  name R5-25-00-1_ol_17;
// downstream 39.13 kva on AS
  phases AN;
  from R5-25-00-1_node_798;
  to R5-25-00-1_node_799;
  length 143.670;
  configuration ID_93;
}
object overhead_line {
  name R5-25-00-1_ol_18;
// downstream 39.13 kva on AS
  phases AN;
  from R5-25-00-1_node_799;
  to R5-25-00-1_node_800;
  length 608.744;
  configuration ID_93;
}
object overhead_line {
  name R5-25-00-1_ol_19;
// downstream 100.62 kva on ABCS
  phases ABCN;
  from R5-25-00-1_node_801;
  to R5-25-00-1_node_802;
  length 315.702;
  configuration ID_102;
}
object overhead_line {
  name R5-25-00-1_ol_20;
// downstream 826.94 kva on ABCS
  phases ABCN;
  from R5-25-00-1_node_426;
  to R5-25-00-1_node_242;
  length 157.776;
  configuration ID_103;
}
object overhead_line {
  name R5-25-00-1_ol_21;
// downstream 888.44 kva on ABCS
  phases ABCN;
  from R5-25-00-1_node_383;
  to R5-25-00-1_node_426;
  length 385.022;
  configuration ID_103;
}
object overhead_line {
  name R5-25-00-1_ol_22;
// downstream 598.15 kva on ACS
  phases ABCN;
  from R5-25-00-1_node_18;
  to R5-25-00-1_node_389;
  length 102.464;
  configuration ID_103;
}
object overhead_line {
  name R5-25-00-1_ol_23;
// downstream 598.15 kva on ACS
  phases ABCN;
  from R5-25-00-1_node_753;
  to R5-25-00-1_node_18;
  length 180.251;
  configuration ID_103;
}
object overhead_line {
  name R5-25-00-1_ol_24;
  phases ABCN;
  from R5-25-00-1_node_142;
  to R5-25-00-1_node_144;
  length 87.648;
  configuration ID_90;
}
object overhead_line {
  name R5-25-00-1_ol_25;
// downstream 256.62 kva on ABCS
  phases ABCN;
  from R5-25-00-1_node_878;
  to R5-25-00-1_node_377;
  length 12.175;
  configuration ID_90;
}
object overhead_line {
  name R5-25-00-1_ol_26;
// downstream 1108.07 kva on ABCS
  phases ABCN;
  from R5-25-00-1_node_225;
  to R5-25-00-1_node_725;
  length 222.366;
  configuration ID_90;
}
object overhead_line {
  name R5-25-00-1_ol_27;
// downstream 2656.41 kva on ABCS
  phases ABCN;
  from R5-25-00-1_node_838;
  to R5-25-00-1_node_763;
  length 96.078;
  configuration ID_90;
}
object overhead_line {
  name R5-25-00-1_ol_28;
// downstream 540.91 kva on ABCS
  phases ABCN;
  from R5-25-00-1_node_354;
  to R5-25-00-1_node_843;
  length 110.100;
  configuration ID_90;
}
object overhead_line {
  name R5-25-00-1_ol_29;
// downstream 524.54 kva on ABCS
  phases ABCN;
  from R5-25-00-1_node_843;
  to R5-25-00-1_node_758;
  length 139.457;
  configuration ID_90;
}
object overhead_line {
  name R5-25-00-1_ol_30;
// downstream 63.28 kva on ABCS
  phases ABCN;
  from R5-25-00-1_node_928;
  to R5-25-00-1_node_141;
  length 33.203;
  configuration ID_103;
}
object overhead_line {
  name R5-25-00-1_ol_31;
  phases ABCN;
  from R5-25-00-1_node_353;
  to R5-25-00-1_node_876;
  length 11.880;
  configuration ID_90;
}
object overhead_line {
  name R5-25-00-1_ol_32;
// downstream 16.37 kva on ABCS
  phases ABCN;
  from R5-25-00-1_node_925;
  to R5-25-00-1_node_840;
  length 1.970;
  configuration ID_90;
}
object overhead_line {
  name R5-25-00-1_ol_33;
// downstream 234.25 kva on ABCS
  phases ABCN;
  from R5-25-00-1_node_377;
  to R5-25-00-1_node_925;
  length 194.144;
  configuration ID_90;
}
object overhead_line {
  name R5-25-00-1_ol_34;
// downstream 746.94 kva on ABCS
  phases ABCN;
  from R5-25-00-1_node_154;
  to R5-25-00-1_node_439;
  length 16.779;
  configuration ID_90;
}
object overhead_line {
  name R5-25-00-1_ol_35;
// downstream 746.94 kva on ABCS
  phases ABCN;
  from R5-25-00-1_node_725;
  to R5-25-00-1_node_154;
  length 221.235;
  configuration ID_90;
}
object overhead_line {
  name R5-25-00-1_ol_36;
// downstream 730.57 kva on ABCS
  phases ABCN;
  from R5-25-00-1_node_439;
  to R5-25-00-1_node_444;
  length 108.332;
  configuration ID_90;
}
object overhead_line {
  name R5-25-00-1_ol_37;
// downstream 33.14 kva on ABCS
  phases ABCN;
  from R5-25-00-1_node_844;
  to R5-25-00-1_node_906;
  length 68.705;
  configuration ID_103;
}
object overhead_line {
  name R5-25-00-1_ol_38;
  phases ABCN;
  from R5-25-00-1_node_906;
  to R5-25-00-1_node_882;
  length 128.452;
  configuration ID_103;
}
object overhead_line {
  name R5-25-00-1_ol_39;
// downstream 256.62 kva on ABCS
  phases ABCN;
  from R5-25-00-1_node_842;
  to R5-25-00-1_node_879;
  length 113.599;
  configuration ID_90;
}
object overhead_line {
  name R5-25-00-1_ol_40;
// downstream 284.16 kva on ABCS
  phases ABCN;
  from R5-25-00-1_node_758;
  to R5-25-00-1_node_842;
  length 162.801;
  configuration ID_90;
}
object overhead_line {
  name R5-25-00-1_ol_41;
// downstream 2656.41 kva on ABCS
  phases ABCN;
  from R5-25-00-1_node_480;
  to R5-25-00-1_node_838;
  length 219.618;
  configuration ID_90;
}
object overhead_line {
  name R5-25-00-1_ol_42;
// downstream 652.31 kva on ABCS
  phases ABCN;
  from R5-25-00-1_node_444;
  to R5-25-00-1_node_151;
  length 202.022;
  configuration ID_90;
}
object overhead_line {
  name R5-25-00-1_ol_43;
// downstream 635.94 kva on ABCS
  phases ABCN;
  from R5-25-00-1_node_151;
  to R5-25-00-1_node_428;
  length 19.096;
  configuration ID_90;
}
object overhead_line {
  name R5-25-00-1_ol_44;
// downstream 324.23 kva on ACS
  phases ABCN;
  from R5-25-00-1_node_389;
  to R5-25-00-1_node_411;
  length 148.898;
  configuration ID_103;
}
object overhead_line {
  name R5-25-00-1_ol_45;
// downstream 798.99 kva on ABCS
  phases ABCN;
  from R5-25-00-1_node_412;
  to R5-25-00-1_node_719;
  length 42.722;
  configuration ID_103;
}
object overhead_line {
  name R5-25-00-1_ol_46;
// downstream 659.24 kva on ABCS
  phases ABCN;
  from R5-25-00-1_node_719;
  to R5-25-00-1_node_236;
  length 393.660;
  configuration ID_103;
}
object overhead_line {
  name R5-25-00-1_ol_47;
// downstream 631.69 kva on ABCS
  phases ABCN;
  from R5-25-00-1_node_236;
  to R5-25-00-1_node_753;
  length 9.295;
  configuration ID_103;
}
object overhead_line {
  name R5-25-00-1_ol_48;
// downstream 33.14 kva on ABCS
  phases ABCN;
  from R5-25-00-1_node_846;
  to R5-25-00-1_node_844;
  length 122.736;
  configuration ID_103;
}
object overhead_line {
  name R5-25-00-1_ol_49;
// downstream 2381.02 kva on ABCS
  phases ABCN;
  from R5-25-00-1_node_763;
  to R5-25-00-1_node_321;
  length 124.584;
  configuration ID_90;
}
object overhead_line {
  name R5-25-00-1_ol_50;
// downstream 2364.25 kva on ABCS
  phases ABCN;
  from R5-25-00-1_node_321;
  to R5-25-00-1_node_328;
  length 203.415;
  configuration ID_90;
}
object overhead_line {
  name R5-25-00-1_ol_51;
// downstream 33.54 kva on AS
  phases ABCN;
  from R5-25-00-1_node_907;
  to R5-25-00-1_node_353;
  length 197.656;
  configuration ID_90;
}
object overhead_line {
  name R5-25-00-1_ol_52;
// downstream 1264.19 kva on ABCS
  phases ABCN;
  from R5-25-00-1_node_907;
  to R5-25-00-1_node_432;
  length 44.348;
  configuration ID_90;
}
object overhead_line {
  name R5-25-00-1_ol_53;
// downstream 557.68 kva on ABCS
  phases ABCN;
  from R5-25-00-1_node_145;
  to R5-25-00-1_node_354;
  length 323.904;
  configuration ID_90;
}
object overhead_line {
  name R5-25-00-1_ol_54;
// downstream 2330.71 kva on ABCS
  phases ABCN;
  from R5-25-00-1_node_328;
  to R5-25-00-1_node_226;
  length 223.893;
  configuration ID_90;
}
object overhead_line {
  name R5-25-00-1_ol_55;
// downstream 2280.40 kva on ABCS
  phases ABCN;
  from R5-25-00-1_node_226;
  to R5-25-00-1_node_907;
  length 98.546;
  configuration ID_90;
}
object overhead_line {
  name R5-25-00-1_ol_56;
// downstream 826.94 kva on ABCS
  phases ABCN;
  from R5-25-00-1_node_242;
  to R5-25-00-1_node_412;
  length 127.555;
  configuration ID_103;
}
object overhead_line {
  name R5-25-00-1_ol_57;
// downstream 1180.34 kva on ABCS
  phases ABCN;
  from R5-25-00-1_node_174;
  to R5-25-00-1_node_225;
  length 355.219;
  configuration ID_90;
}
object overhead_line {
  name R5-25-00-1_ol_58;
// downstream 1180.34 kva on ABCS
  phases ABCN;
  from R5-25-00-1_node_432;
  to R5-25-00-1_node_174;
  length 26.248;
  configuration ID_90;
}
object overhead_line {
  name R5-25-00-1_ol_59;
// downstream 982.66 kva on ABCS
  phases ABCN;
...